FIDVR/IEEE118_from_PDF_out.txt
ANDES 1.10.0
Copyright (C) 2015-2026 Hantao Cui

ANDES comes with ABSOLUTELY NO WARRANTY
Case file: /home/teng/benchmark_118_10_8500_Andes_OpenDSS/IEEE118_from_PDF.xlsx
Report time: 04/22/2026 05:18:24 PM

Power flow converged in 5 iterations.
Flat-start: No

Statistics:
Buses                            118
Generators                        19
Committed Gens                    19
Loads                             94
Shunts                            14
Lines                            185
Transformers      
Areas                              2

EXTENDED SUMMARY:
                              P (pu)            Q (pu)

Generation                    44.611            8.6901
Load                          42.567            14.069

BUS DATA:
                            Bus Name            Vm(pu)          Va(rad.)

1                       Riversde  V2           0.95269           0.23602
2                       Pokagon   V2           0.96842           0.24388
3                       HickryCk  V2           0.96435           0.25265
4                       NwCarlsl  V2           0.99167           0.31863
5                       Olive     V2           0.99401           0.32661
6                       Kankakee  V2           0.98152            0.2805
7                       JacksnRd  V2           0.98407           0.27277
8                       Olive     V1           0.99934           0.41338
9                       Bequine   V1            1.0347           0.54248
10                      Breed     V1              1.05           0.67522
11                      SouthBnd  V2           0.98232           0.27463
12                      TwinBrch  V2              0.99           0.26653
13                      Concord   V2           0.96466           0.24949
14                      GoshenJt  V2           0.95724           0.21306
15                      FtWayne   V2           0.96375           0.24349
16                      N. E.     V2           0.95661           0.23866
17                      Sorenson  V2           0.98424            0.2827
18                      McKinley  V2           0.92886           0.21159
19                      Lincoln   V2           0.95422           0.24077
20                      Adams     V2           0.95371           0.25492
21                      Jay       V2            0.9578           0.28175
22                      Randolph  V2           0.97279           0.32506
23                      CollCrnr  V2            1.0089           0.40808
24                      Trenton   V2            1.0075           0.39623
25                      TannrsCk  V2              1.05           0.53397
26                      TannrsCk  V1             1.015           0.56447
27                      Madison   V2           0.97808           0.32636
28                      Mullin    V2           0.96818           0.29508
29                      Grant     V2           0.96303           0.26777
30                      Sorenson  V1           0.97421           0.37116
31                      DeerCrk   V2             0.967           0.27588
32                      Delaware  V2           0.97506           0.31367
33                      Haviland  V2           0.95785           0.22467
34                      Rockhill  V2           0.96548           0.22751
35                      WestLima  V2           0.95976           0.21965
36                      Sterling  V2           0.95928           0.21974
37                      EastLima  V2           0.97031           0.23586
38                      EastLima  V1           0.94834           0.32716
39                      NwLibrty  V2           0.92724           0.17518
40                      West End  V2           0.91514           0.15576
41                      S.Tiffin  V2            0.9098            0.1455
42                      Howard    V2           0.92394           0.17285
43                      S.Kenton  V2            0.9639           0.22149
44                      WMVernon  V2           0.97926            0.2582
45                      N.Newark  V2           0.98411           0.28766
46                      W.Lancst  V2             1.005           0.33433
47                      Crooksvl  V2            1.0172           0.37164
48                      Zanesvll  V2            1.0206           0.35929
49                      Philo     V2             1.025           0.37674
50                      WCambrdg  V2             1.001           0.34101
51                      Newcmrst  V2           0.96681            0.2951
52                      SCoshoct  V2           0.95676           0.27841
53                      Wooster   V2           0.94596           0.26125
54                      Torrey    V2             0.955           0.27706
55                      Wagenhls  V2           0.95136           0.27214
56                      Sunnysde  V2            0.9539           0.27526
57                      WNwPhil1  V2            0.9705            0.2965
58                      WNwPhil2  V2           0.95896            0.2815
59                      Tidd      V2             0.985           0.34807
60                      SWKammer  V2           0.99315           0.41389
61                      W.Kammer  V2             0.995           0.42941
62                      Natrium   V2           0.99776           0.41877
63                      Tidd      V1           0.96882           0.40681
64                      Kammer    V1           0.98382           0.43752
65                      Muskngum  V1             1.005           0.49177
66                      Muskngum  V2              1.05           0.48973
67                      Summerfl  V2            1.0196           0.44356
68                      Sporn     V1           0.99873           0.48609
69                      Sporn     V2             1.035            0.5236
70                      Portsmth  V2           0.98769           0.39112
71                      NPortsmt  V2           0.99039           0.38702
72                      Hillsbro  V2            1.0001           0.37911
73                      Sargents  V2           0.99013           0.38419
74                      Bellefnt  V2           0.96738           0.36121
75                      SthPoint  V2           0.97584           0.37939
76                      Darrah    V2           0.95259           0.34028
77                      Turner    V2             1.004           0.37522
78                      Chemical  V2            1.0016           0.36879
79                      CapitlHl  V2            1.0079           0.37195
80                      CabinCrk  V2              1.04           0.40537
81                      Kanawha   V1           0.99124            0.4558
82                      Logan     V2            0.9827           0.27263
83                      Sprigg    V2            0.9792           0.24724
84                      BetsyLne  V2           0.97132           0.21773
85                      BeaverCk  V2           0.97462           0.20912
86                      Hazard    V2           0.98005           0.18367
87                      Pinevlle  V3             1.015           0.18731
88                      Fremont   V2           0.97783           0.20296
89                      ClinchRv  V2             0.993           0.23284
90                      Holston   V2           0.83611           0.10061
91                      HolstonT  V2           0.94328           0.18357
92                      Saltvlle  V2           0.98018           0.20809
93                      Tazewell  V2           0.98182            0.2143
94                      Switchbk  V2           0.98714           0.23403
95                      Caldwell  V2           0.97726           0.24368
96                      Baileysv  V2            0.9894           0.27445
97                      Sundial   V2            1.0076           0.33366
98                      Bradley   V2            1.0201            0.3211
99                      Hinton    V2            1.0172           0.26016
100                     Glen Lyn  V2             1.017           0.23545
101                     Wythe     V2           0.98826           0.20867
102                     Smythe    V2           0.98212           0.20643
103                     Claytor   V2             1.001            0.1725
104                     Hancock   V2           0.96518           0.12554
105                     Roanoke   V2           0.95992           0.10568
106                     Cloverdl  V2           0.95543           0.10141
107                     Reusens   V2           0.93991          0.053447
108                     Blaine    V2           0.95452          0.086225
109                     Franklin  V2           0.95263          0.078853
110                     Fieldale  V2           0.95148          0.065476
111                     DanRiver  V2              0.98          0.088292
112                     Danville  V2           0.92514          0.018922
113                     Deer Crk  V2           0.98377           0.28643
114                     WMedford  V2           0.97698           0.31886
115                     Medford   V2           0.97721           0.31976
116                     KygerCrk  V2           0.99906           0.48606
117                     Corey     V2           0.99249           0.26594
118                     WHuntngd  V2           0.96506           0.36117

LINE DATA:
                           Line Name     Fr. Bus (idx)      To Bus (idx)       P From (pu)       Q From (pu)         P To (pu)         Q To (pu)

Line_1                      Line 1-2                 1                 2          -0.10809          -0.12846           0.10894           0.10782
Line_2                      Line 1-3                 1                 3          -0.40191          -0.14154           0.40447           0.14001
Line_3                     Line 2-12                 2                12          -0.41594          -0.21635           0.42026           0.21551
Line_4                      Line 3-5                 3                 5          -0.67589          -0.10297           0.68794           0.12972
Line_5                     Line 3-12                 3                12          -0.11858          -0.13704           0.12004           0.10309
Line_6                      Line 4-5                 4                 5           -1.0015         -0.074148            1.0033          0.080261
Line_7                     Line 4-11                 4                11           0.61154         -0.045852          -0.60356          0.055083
Line_8                      Line 5-6                 5                 6           0.84668          0.055442            -0.838         -0.029964
Line_9                     Line 5-11                 5                11           0.73529         -0.037729          -0.72416          0.058134
Line_10                     Line 6-7                 6                 7             0.318          -0.19004          -0.31736           0.18767
Line_11                    Line 7-12                 7                12           0.12736          -0.20767          -0.12685           0.20117
Line_12                     Line 8-9                 8                 9           -4.4063            -1.109            4.4536           0.50832
Line_13                     Line 8-5                 8                 5            3.2732           0.92292           -3.2732          -0.62292
Line_14                    Line 8-30                 8                30           0.85312           0.18612          -0.84914          -0.64007
Line_15                    Line 9-10                 9                10           -4.4536          -0.50832               4.5          -0.23084
Line_16                   Line 11-12                11                12           0.26235          -0.46467          -0.26062           0.46553
Line_17                   Line 11-13                11                13           0.36537           0.12145          -0.36191          -0.12783
Line_18                   Line 12-15                12                15           0.38791           0.25326          -0.38321          -0.23778
Line_19                   Line 12-17                12                17          -0.16075           0.11074           0.16158           -0.1075
Line_20                  Line 12-117                12               117        1.0384e-05         -0.035132        6.6613e-16        8.8818e-16
Line_21                   Line 13-15                13                15          0.021911         -0.032171         -0.021872         -0.025973
Line_22                   Line 14-15                14                15             -0.14             -0.01           0.14128         -0.032106
Line_23                   Line 15-17                15                17          -0.90022          -0.18405           0.91212           0.18131
Line_24                   Line 15-19                15                19           0.12317           0.19081          -0.12248          -0.19783
Line_25                   Line 15-33                15                33           0.14085         -0.010906          -0.14003          -0.01592
Line_26                   Line 16-17                16                17             -0.25              -0.1           0.25341          0.069625
Line_27                   Line 17-19                17                19           0.87429           0.38848          -0.86267          -0.34077
Line_28                   Line 17-31                17                31          0.068231          0.068699         -0.067624          -0.10468
Line_29                  Line 17-113                17               113          -0.10555          0.043875           0.10567         -0.050895
Line_30                   Line 18-19                18                19              -0.6             -0.34           0.60608           0.35686
Line_31                   Line 19-20                19                20          -0.10416          0.013798           0.10448         -0.039427
Line_32                   Line 19-34                19                34          0.033229          -0.08206         -0.032904            0.0249
Line_33                   Line 20-21                20                21          -0.28448         0.0094272           0.28611          -0.02157
Line_34                   Line 21-22                21                22          -0.42611          -0.05843            0.4303           0.05494
Line_35                   Line 22-23                22                23           -0.5303          -0.10494           0.54073           0.11375
Line_36                   Line 23-24                23                24           0.23537         -0.059739          -0.23462          0.011851
Line_37                   Line 23-25                23                25           -1.6794           -0.1296            1.7227           0.26022
Line_38                   Line 23-32                23                32           0.83328          0.045593          -0.81131         -0.081153
Line_39                   Line 24-70                24                70          0.012613        -0.0032041         -0.012607         -0.097279
Line_40                   Line 24-72                24                72          0.092009        -0.0086467          -0.09159         -0.038842
Line_41                   Line 25-27                25                27            1.3635           0.23534           -1.3067          -0.12572
Line_42                   Line 26-25                26                25           0.88626           0.21533          -0.88626          -0.18691
Line_43                   Line 26-30                26                30            2.2537          0.020869            -2.213          -0.47554
Line_44                   Line 27-28                27                28           0.35514          0.028994          -0.35259         -0.038039
Line_45                   Line 27-32                27                32           0.15794          -0.01704          -0.15735        0.00064564
Line_46                  Line 27-115                27               115          0.083643         -0.016236         -0.083522         -0.002067
Line_47                   Line 28-31                28                31           0.18259         -0.031961          -0.18172          0.035418
Line_48                   Line 29-31                29                31             -0.24             -0.04           0.24069          0.034373
Line_49                   Line 30-17                30                17            2.2741           0.89984           -2.2741          -0.67449
Line_50                   Line 30-38                30                38           0.78802           0.21577          -0.78417          -0.56061
Line_51                   Line 31-32                31                32          -0.35134           0.02224           0.35531         -0.032782
Line_52                  Line 32-113                32               113           0.10675         -0.097032          -0.10567          0.050895
Line_53                  Line 32-114                32               114         -0.083405         -0.019678          0.083505         0.0046259
Line_54                   Line 33-37                33                37         -0.089967          -0.07408          0.090481          0.041821
Line_55                   Line 34-36                34                36           0.30901           0.12168          -0.30797          -0.12375
Line_56                   Line 34-37                34                37          -0.89966          -0.25733           0.90201           0.25692
Line_57                   Line 34-43                34                43          0.033557         -0.018751         -0.033507         -0.020374
Line_58                   Line 35-36                35                36           0.00203          0.043803        -0.0020252         -0.046248
Line_59                   Line 35-37                35                37          -0.33203           -0.1338           0.33354           0.12836
Line_60                   Line 37-39                37                39           0.58518           0.21995          -0.57166          -0.19962
Line_61                   Line 37-40                37                40           0.48139           0.14587          -0.46507          -0.13699
Line_62                   Line 38-37                38                37            2.3926            1.2984           -2.3926           -1.0283
Line_63                   Line 38-65                38                65           -1.6084          -0.73781             1.635          0.030668
Line_64                   Line 39-40                39                40           0.30166           0.08962          -0.29951         -0.095735
Line_65                   Line 40-41                40                41            0.1889          0.039988          -0.18825         -0.047969
Line_66                   Line 40-42                40                42         -0.084323         -0.037267          0.084815       -0.00051406
Line_67                   Line 41-42                41                42          -0.18175         -0.052031           0.18346          0.028732
Line_68                   Line 42-49                42                49          -0.61414          -0.12911           0.64644           0.19316
Line_69                   Line 42-49                42                49          -0.61414          -0.12911           0.64644           0.19316
Line_70                   Line 43-44                43                44          -0.14649         -0.049626           0.14793        -0.0018678
Line_71                   Line 44-45                44                45          -0.30793          0.017762           0.31016         -0.030364
Line_72                   Line 45-46                45                46          -0.35205         -0.055925           0.35723          0.040658
Line_73                   Line 45-49                45                49          -0.48811         -0.036864           0.50496          0.037845
Line_74                   Line 46-47                46                47           -0.3007         -0.017313            0.3041        -0.0036259
Line_75                   Line 46-48                46                48          -0.14653         -0.058699           0.14788          0.014524
Line_76                   Line 47-49                47                49          -0.11296          -0.09972           0.11335           0.08427
Line_77                   Line 47-69                47                69          -0.53114           0.10335           0.55575         -0.097025
Line_78                   Line 48-49                48                49          -0.34788          0.031731           0.34999         -0.038954
Line_79                   Line 49-50                49                50           0.53861           0.13415          -0.53071          -0.13114
Line_80                   Line 49-51                49                51            0.6687           0.20424          -0.64573          -0.17344
Line_81                   Line 49-54                49                54           0.37981           0.13038          -0.36779          -0.15525
Line_82                   Line 49-54                49                54           0.37953           0.11158          -0.36576          -0.13709
Line_83                   Line 49-66                49                66           -1.3101          0.039416            1.3396          0.084263
Line_84                   Line 49-66                49                66           -1.3101          0.039416            1.3396          0.084263
Line_85                   Line 49-69                49                69          -0.43759          0.093147           0.45729          -0.11618
Line_86                   Line 50-57                50                57           0.36071          0.091138            -0.354          -0.10446
Line_87                   Line 51-52                51                52           0.28632          0.062137          -0.28443         -0.069597
Line_88                   Line 51-58                51                58           0.18942            0.0313           -0.1884         -0.044997
Line_89                   Line 52-53                52                53           0.10443          0.019597          -0.10389         -0.054118
Line_90                   Line 53-54                53                54          -0.12611         -0.055882           0.12663          0.030284
Line_91                   Line 54-55                54                55          0.070946          0.023185         -0.070833         -0.041066
Line_92                   Line 54-56                54                56           0.18769           0.05386          -0.18758         -0.060125
Line_93                   Line 54-59                54                59          -0.30171         -0.075689           0.30686          0.042887
Line_94                   Line 55-56                55                56          -0.21645         -0.092703           0.21674          0.090229
Line_95                   Line 55-59                55                59          -0.34272          -0.08623           0.34905          0.062174
Line_96                   Line 56-57                56                57          -0.23174         -0.090491             0.234          0.074456
Line_97                   Line 56-58                56                58         -0.068195         -0.036572          0.068395          0.014997
Line_98                   Line 56-59                56                59           -0.2779         -0.042823           0.28493          0.010715
Line_99                   Line 56-59                56                59          -0.29133         -0.040219           0.29884          0.012189
Line_100                  Line 59-60                59                60          -0.43199           0.03546           0.43818         -0.043922
Line_101                  Line 59-61                59                61          -0.51583          0.049908           0.52499         -0.046069
Line_102                  Line 60-61                60                61           -1.1189          0.080896            1.1223         -0.078042
Line_103                  Line 60-62                60                62         -0.099247         -0.066974          0.099415           0.05319
Line_104                  Line 61-62                61                62            0.2533          -0.13172          -0.25263           0.12504
Line_105                  Line 62-66                62                66          -0.37268          -0.17336           0.38042           0.14772
Line_106                  Line 62-67                62                67           -0.2441          -0.14487           0.24608            0.1223
Line_107                  Line 63-59                63                59            1.5119            0.6768           -1.5119          -0.57281
Line_108                  Line 63-64                63                64           -1.5119           -0.6768            1.5166           0.52665
Line_109                  Line 64-61                64                61           0.30054           0.14275          -0.30054          -0.13977
Line_110                  Line 64-65                64                65           -1.8171           -0.6694            1.8266           0.40398
Line_111                  Line 65-66                65                66           0.06229           0.72244          -0.06229           -0.7056
Line_112                  Line 65-68                65                68           0.38604           0.04147          -0.38568           -0.6774
Line_113                  Line 66-67                66                67           0.53273           0.19371          -0.52608           -0.1923
Line_114                  Line 68-69                68                69           -1.1206           0.97824            1.1206          -0.90649
Line_115                  Line 68-81                68                81            1.5063          -0.13723           -1.5023          -0.61532
Line_116                 Line 68-116                68               116        2.0135e-06          -0.16361       -1.4211e-14                 0
Line_117                  Line 69-70                69                70            1.1091           0.12878           -1.0736          -0.10333
Line_118                  Line 69-75                69                75            1.2474           0.10729           -1.1875         -0.052093
Line_119                  Line 69-77                69                77            1.5113         -0.087315           -1.4454           0.19485
Line_120                  Line 70-71                70                71          0.088801          -0.10139         -0.088645          0.093428
Line_121                  Line 70-74                70                74           0.24077          0.065449          -0.23811         -0.088865
Line_122                  Line 70-75                70                75          0.096633          0.036546         -0.096095         -0.069474
Line_123                  Line 71-72                71                72          0.028613         -0.082044          -0.02841          0.038842
Line_124                  Line 71-73                71                73          0.060032         -0.011383             -0.06       -1.0658e-14
Line_125                  Line 74-75                74                75          -0.44189         -0.068836           0.44451          0.067724
Line_126                  Line 75-77                75                77         -0.019171          -0.15539          0.020289           0.11031
Line_127                 Line 75-118                75               118           0.38821          0.099228          -0.38574          -0.10234
Line_128                  Line 76-77                76                77          -0.29708          -0.25457           0.30417           0.24295
Line_129                 Line 76-118                76               118          -0.38292          -0.10543           0.38574           0.10234
Line_130                  Line 77-78                77                78           0.53198          0.028853          -0.53094         -0.038068
Line_131                  Line 77-80                77                80          -0.80753          -0.47606           0.82197           0.46796
Line_132                  Line 77-80                77                80          -0.36617          -0.24861           0.37172           0.24461
Line_133                  Line 77-82                77                82            1.1527           -0.1323           -1.1131           0.16476
Line_134                  Line 78-79                78                79          -0.17906          -0.22193           0.17949           0.21733
Line_135                  Line 79-80                79                80          -0.56949          -0.33415           0.57609           0.34431
Line_136                  Line 80-96                80                96           0.77444           0.15933          -0.75356          -0.10348
Line_137                  Line 80-97                80                97           0.84768           0.21023          -0.83467          -0.17048
Line_138                  Line 80-98                80                98           0.83615          0.027017          -0.82073          0.012629
Line_139                  Line 80-99                80                99           0.74421         -0.024196          -0.72096          0.071915
Line_140                  Line 81-80                81                80            1.5023           0.61532           -1.5023          -0.52856
Line_141                  Line 82-83                82                83           0.63833          -0.11114           -0.6335            0.0904
Line_142                  Line 82-96                82                96         -0.065197          -0.13049          0.065451          0.078422
Line_143                  Line 83-84                83                84           0.19752         -0.044283          -0.19491          0.025255
Line_144                  Line 83-85                83                85           0.23598         -0.050233          -0.23343           0.02579
Line_145                  Line 84-85                84                85          0.084912         -0.095255         -0.084425          0.084606
Line_146                  Line 85-86                85                86           0.17218          -0.10264          -0.17079          0.081153
Line_147                  Line 85-88                85                88          0.049665         -0.053346         -0.049579          0.027482
Line_148                  Line 85-89                85                89          -0.14399          -0.10441           0.14468           0.06392
Line_149                  Line 86-87                86                87         -0.039205          -0.18115              0.04            0.1427
Line_150                  Line 88-89                88                89          -0.43042          -0.12748           0.43332           0.12354
Line_151                  Line 89-90                89                90            3.2229          -0.14817           -2.6764           0.44125
Line_152                  Line 89-91                89                91            1.7612            1.0335           -1.7193          -0.89816
Line_153                  Line 89-92                89                92           0.50796           0.13145          -0.50512          -0.17029
Line_154                  Line 90-91                90                91           -1.7236          -0.86125             1.858            1.1115
Line_155                  Line 91-92                91                92          -0.23868          -0.21334           0.24288            0.1969
Line_156                  Line 92-93                92                93          -0.13755          0.050602           0.13816         -0.070827
Line_157                  Line 92-94                92                94          -0.15681         -0.012915           0.15805         -0.022318
Line_158                 Line 92-100                92               100          -0.11356          -0.11881           0.11505          0.078529
Line_159                 Line 92-102                92               102          0.020162         -0.045482         -0.020138          0.031498
Line_160                  Line 93-94                93                94          -0.25816        0.00082707            0.2597         -0.013941
Line_161                  Line 94-95                94                95          -0.13357            0.2611           0.13477          -0.26785
Line_162                  Line 94-96                94                96          -0.41914           0.10209           0.42434          -0.10775
Line_163                 Line 94-100                94               100          -0.16504          -0.48693           0.16936           0.44035
Line_164                  Line 95-96                95                96          -0.55477         -0.042154           0.56031          0.045599
Line_165                  Line 96-97                96                97          -0.67654         -0.062793           0.68467          0.080479
Line_166                 Line 98-100                98               100           0.48073         -0.092629          -0.47174          0.083795
Line_167                 Line 99-100                99               100           0.30096         -0.071915          -0.29932          0.056978
Line_168                Line 100-101               100               101           0.25251           0.16204          -0.24994          -0.18333
Line_169                Line 100-103               100               103            1.2134         -0.049156           -1.1906          0.069339
Line_170                Line 100-104               100               104           0.56377           0.13478          -0.54875          -0.12004
Line_171                Line 100-106               100               106           0.60699           0.11906          -0.58411         -0.092792
Line_172                Line 101-102               101               102          0.029942          0.033326         -0.029862         -0.061498
Line_173                Line 103-104               103               104           0.32661           0.11664          -0.32078          -0.13615
Line_174                Line 103-105               103               105           0.43526            0.1025          -0.42434          -0.10856
Line_175                Line 103-110               103               110           0.59872           0.15158          -0.58358          -0.12516
Line_176                Line 104-105               104               105           0.48953         0.0061954          -0.48698        -0.0056022
Line_177                Line 105-106               105               106          0.086262          0.050245           -0.0861         -0.062763
Line_178                Line 105-107               105               107           0.26734          0.012504          -0.26316         -0.040672
Line_179                Line 105-108               105               108           0.24772         -0.024297          -0.24597          0.012101
Line_180                Line 106-107               106               107           0.24021         -0.004445          -0.23684         -0.026322
Line_181                Line 108-109               108               109           0.22597         -0.022101          -0.22538          0.016816
Line_182                Line 109-110               109               110           0.14538         -0.046816          -0.14469            0.0304
Line_183                Line 110-111               110               111          -0.35538           -0.2617              0.36            0.2589
Line_184                Line 110-112               110               112           0.69365           0.11078             -0.68             -0.13
Line_185                Line 114-115               114               115         -0.083505        -0.0046259          0.083522          0.002067

OTHER ALGEBRAIC VARIABLES:
                                    

q PV 1                      -0.23084
q PV 2                        1.4142
q PV 3                       0.30865
q PV 4                        0.2362
q PV 5                       0.25735
q PV 6                     -0.036357
q PV 7                        1.5218
q PV 8                      0.059299
q PV 9                       0.77053
q PV 10                     -0.39561
q PV 11                       1.1986
q PV 12                    -0.015652
q PV 14                       1.1607
q PV 15                       0.1427
q PV 16                       1.2042
q PV 17                       1.2064
q PV 18                      0.60005
q PV 19                       0.2589
q Slack 13                  -0.97094
p Slack 13                    6.0015

